-- =====================================================================
-- This is an ECLIPSE-type input file for fluid properties using the
-- ad-blackoil module in MRST. This file is for a two-phase fluid system 
-- with CO2 (dry gas) and brine (live oil). PVT properties are for 25C of 
-- temperature, and three regions are specified for kr-Pc.
--
-- See the ECLIPSE reference manual and technical description 
-- (Schlumberger, 2014) for reference. These can be found online.
-- =====================================================================
RUNSPEC
TITLE
   EXAMPLE RUN

DIMENS
   30000    1    1  / 

OIL

GAS

DISGAS

METRIC

TABDIMS
-- NTSFUN NTPVT NSSFUN NPPVT NTFIP NRPVT
    3       1     24    32     1     30 
-- NRVPVT NTENDP NEOSRR NEOSRS NFLUXR NTHERR (SET TO DEFAULTS)
     20     1      1     NaN     10     1
-- NTROCC(N ROCK tables)
      1 /

START
  25 'JUN' 2022  /

GRID    ================================================================

/

PROPS    ===============================================================
-------- THE PROPS SECTION DEFINES THE REL. PERMEABILITIES, CAPILLARY
-------- PRESSURES, AND THE PVT PROPERTIES OF THE RESERVOIR FLUIDS
----------------------------------------------------------------------
-- Units are "metric units", i.e. densities in kg/m^3 and p in bar.
--
-- SGAS KRG KROG(SGAS) PCOG(SGAS)
SGOF
    0                   0                   1                   0
    0.0413043478260870	0.00170604914933837	0.809848512686135	0
    0.0826086956521739	0.00682419659735350	0.649790109152045	0
    0.123913043478261	0.0153544423440454	0.516102630127223	0
    0.165217391304348	0.0272967863894140	0.405384335844128	0
    0.206521739130435	0.0426512287334594	0.314539479567677	0
    0.247826086956522	0.0614177693761815	0.240763881124732	0
    0.289130434782609	0.0835964083175803	0.181530500433583	0
    0.330434782608696	0.109187145557656	0.134575011033439	0
    0.371739130434783	0.138189981096408	0.0978813736139160	0
    0.413043478260870	0.170604914933837	0.0696674095445193	0
    0.454347826086957	0.206431947069943	0.0483703744041357	0
    0.495652173913043	0.245671077504726	0.0326325315105177	0
    0.536956521739130	0.288322306238185	0.0212867254497721	0
    0.578260869565217	0.334385633270321	0.0133419556058464	0
    0.619565217391304	0.383861058601134	0.00796894969001613	0
    0.660869565217391	0.436748582230624	0.00448573727037232	0
    0.702173913043478	0.493048204158790	0.00234322330130829	0
    0.743478260869565	0.552759924385633	0.00111076165300700	0
    0.784782608695652	0.615883742911153	0.000461728640928163	0
    0.826086956521739	0.682419659735350	0.000159096555295453	0
    0.867391304347826	0.752367674858223	4.10071905836125e-05	0
    0.908695652173913	0.825727788279773	6.34537500565151e-06	0
    0.950000000000000	0.902500000000000	0                   0
/
    0                   0                   1                   0
    1e-3                3.16227766016838e-08	0.999950000999990	5.00002500018750
    0.0363636363636364	0.00693427337633158	0.830932796194994	5.09346603271437
    0.0727272727272727	0.0196130869080216	0.685547313087159	5.19237752033936
    0.109090909090909	0.0360315414041355	0.561263697089742	5.29728463363976
    0.145454545454545	0.0554741870106527	0.455696656587044	5.40881864633454
    0.181818181818182	0.0775275332202220	0.366647832053200	5.52770798392567
    0.218181818181818	0.101912589053872	0.292098166170964	5.65479833292457
    0.254545454545455	0.128424540136967	0.230200273950488	5.79107808321159
    0.290909090909091	0.156904695264173	0.179270812848104	5.93771085995354
    0.327272727272727	0.187225381160953	0.137782852885111	6.09607760467025
    0.363636363636364	0.219280977874737	0.104358246766552	6.26783170528009
    0.400000000000000	0.252982212813470	0.0777600000000000	6.45497224367903
    0.436363636363636	0.288252331233084	0.0568846410143370	6.65994284582664
    0.472727272727273	0.325024416813828	0.0407545912785391	6.88576743024685
    0.509090909090909	0.363239452806453	0.0285105354204569	7.13624032148063
    0.545454545454545	0.402844879568725	0.0194037913455986	7.41619848709566
    0.581818181818182	0.443793496085221	0.0127886803559121	7.73192141033858
    0.618181818181818	0.486042606647900	0.00811489726856709	8.09173593712687
    0.654545454545455	0.529553346516583	0.00491988053473744	8.50696309223401
    0.690909090909091	0.574290140991965	0.00282118235838337	8.99346167730627
    0.727272727272727	0.620220265761776	0.00150883881503375	9.57427107756338
    0.763636363636364	0.667313485367686	0.000737739970568329	10.2844168900930
    0.800000000000000	0.715541752799933	0                   11.1803398874989
/
    0                   0                   1                   0
    1e-3                1.77827941003892e-09	0.999950000999990	0.500006250070313
    0.0397727272727273	0.00354221078768655	0.816338321245392	0.526020243935251
    0.0795454545454545	0.0119145294137546	0.660711298672773	0.554583661723402
    0.119318181818182	0.0242234834632585	0.529779503255496	0.586065580874768
    0.159090909090909	0.0400755402938448	0.420479897720676	0.620917206398099
    0.198863636363636	0.0592204780612068	0.330013893695628	0.659685515138225
    0.238636363636364	0.0814777616368468	0.255835408854316	0.703039685800946
    0.278409090909091	0.106707752148767	0.195638924063793	0.751806693317649
    0.318181818181818	0.134797512689800	0.147347540530639	0.807019969843287
    0.357954545454545	0.165652804495575	0.109101036947411	0.869987043343800
    0.397727272727273	0.199193150845120	0.0792439266390795	0.942385309684064
    0.437500000000000	0.235348589801656	0.0563135147094727	1.02640047855933
    0.477272727272727	0.274057430733284	0.0390279551877200	1.12493144039298
    0.517045454545455	0.315264643458214	0.0262743081746937	1.24190158671827
    0.556818181818182	0.358920665046720	0.0170965969894508	1.38274655693342
    0.596590909090909	0.404980492970270	0.0106838653156765	1.55520592876350
    0.636363636363636	0.453402980823878	0.00635823434812575	1.77066283411971
    0.676136363636364	0.504150281200491	0.00356295993906617	2.04652601423829
    0.715909090909091	0.557187397908215	0.00185048974472032	2.41072867470639
    0.755681818181818	0.612481821045948	0.000870520371708167	2.91088648444197
    0.795454545454545	0.670003225955017	0.000358054523489454	3.63481836061539
    0.835227272727273	0.729723222164687	0.000121458146806178	4.76281093139949
    0.875000000000000	0.791615141996917	0                   6.72717132202972
/   

-- ROCK COMPRESSIBILITY
--
--    REF. PRES   COMPRESSIBILITY
ROCK
        1       1.4504e-04  /

-- SURFACE DENSITIES OF RESERVOIR FLUIDS (ECLIPSE STD, T = 15.56C | P = 1.0135 bar)
DENSITY
--        OIL               WATER       GAS
          1068.89254250267     0       1.86829446671386 / -- "water" phase not present here.

-- PVT PROPERTIES OF DRY GAS (NO VAPORIZED OIL)
-- WE WOULD USE PVTG TO SPECIFY THE PROPERTIES OF WET GAS
--
--   PGAS               BGAS                VISGAS (cP)
PVDG
1	                1.24299819548683	0.0175489477520414
1.24680437914745	0.996252784693072	0.017550553821349
1.55452115986126	0.798350045719629	0.0175525874326856
1.93818378959239	0.639621474681379	0.0175551716332579
2.4165360364564	    0.512312413712141	0.0175584697974266
3.01294771262146	0.410203198087345	0.0175627013314244
3.75655640223874	0.328305294887068	0.0175681646667839
4.68369097282565	0.262617587951746	0.0175752714547482
5.83964641549241	0.209930902225595	0.0175845982359512
7.28089672350865	0.167671217157588	0.017596965815931
9.07785391899091	0.133773908729703	0.0176135633454539
11.3183080194587	0.106582875174658	0.0176361459757865
14.1117160032008	0.0847696164652905	0.0176673564016639
17.594549310076	    0.0672683113953098	0.0177112607137489
21.9369611289285	0.0532237158470122	0.0177742672000444
27.3510992007354	0.041949329483918	0.0178667570684036
34.1014702579733	0.0328937763293788	0.0180061050023946
42.5178624530077	0.0256137454327216	0.0182225837230799
53.0114570983989	0.0197521821617813	0.0185717294570084
66.094916855271	    0.0150208445827109	0.0191626316286744
82.4074317745386	0.0111875758490798	0.0202301255082582
102.745946810789	0.00807557085228818	0.0223386431868074
128.104096423343	0.00562321003635243	0.0268554224105172
159.720748407352	0.004027208011682	0.0350483675924044
199.140528554995	0.00322401895501406	0.0446329345154548
248.289283068105	0.00278684783410293	0.0541498937648528
309.568165424695	0.00250336360361755	0.0639176846982545
385.970944296152	0.00229685890576438	0.0744679378739276
481.230263572119	0.00213532786324826	0.0863284891697191
600	                0.00200315641880212	0.100049168731196
660	                0.00195283876465699	0.106700698010321
750	                0.0018905960211619	0.116430289530487 /

-- PVT PROPERTIES OF LIVE OIL (WITH DISSOLVED GAS)
-- WE WOULD USE PVDO TO SPECIFY THE PROPERTIES OF DEAD OIL
--
-- FOR EACH VALUE OF RS THE SATURATION PRESSURE, FVF AND VISCOSITY
-- ARE SPECIFIED. DATA FOR UNDERSATURATED OIL MAY BE SUPPLIED FOR ANY RS, 
-- BUT MUST BE SUPPLIED FOR THE HIGHEST RS.
--
--   RS                 POIL                FVFO                VISO
PVTO
0.106428423802954	1	                1.02348048287084	0.435619665176826 /
0.155133228904494	1.24680437914745	1.02354440943866	0.435784768517385 /
0.215372912447484	1.55452115986126	1.02362338910783	0.435989942102159 /
0.28986580779911	1.93818378959239	1.02372094569114	0.436244734618646 /
0.381950118243321	2.4165360364564	    1.0238413968116	    0.436560920616256 /
0.495713811969902	3.01294771262146	1.023990015511	    0.436952970724828 /
0.636145212578255	3.75655640223874	1.02417321487274	0.43743860209508 /
0.809303583778201	4.68369097282565	1.02439875271834	0.438039407200927 /
1.02250584943074	5.83964641549241	1.0246759482841	    0.438781549115009 /
1.28452015617859	7.28089672350865	1.02501589414123	0.439696493207897 /
1.60574801001465	9.07785391899091	1.02543163258475	0.440821714969293 /
1.99836234054978	11.3183080194587	1.02593824349596	0.442201275328087 /
2.47634640628167	14.1117160032008	1.02655275629785	0.443886080060936 /
3.05534427844844	17.594549310076	    1.02729374659307	0.445933527450413 /
3.75218293050031	21.9369611289285	1.02818040125356	0.448406084436275 /
4.58385299319921	27.3510992007354	1.02923072563251	0.451368100907783 /
5.56563439131315	34.1014702579733	1.03045841491134	0.454879861922808 /
6.70792176910268	42.5178624530077	1.03186771471949	0.458987487775481 /
8.01115095521278	53.0114570983989	1.03344536655021	0.463706854633317 /
9.45809397619295	66.094916855271	    1.03514853484848	0.468999355014219 /
11.002859882152	    82.4074317745386	1.03688772008122	0.474737599720957 /
12.5573007843756	102.745946810789	1.03850570323602	0.480663502301463 /
13.9869732644222	128.104096423343	1.03977068030163	0.486378105271405 /
15.1900186700989	159.720748407352	1.04049318121398	0.491601893500134 /
16.2472363698055	199.140528554995	1.04074933755267	0.496666156813057 /
17.2897307553546	248.289283068105	1.04068255835535	0.502080572875428 /
18.3919945001621	309.568165424695	1.04034359558088	0.508187227176885 /
19.6001379567349	385.970944296152	1.039733220101	    0.515257573505461 /
20.9507535265919	481.230263572119	1.03883231667175	0.523558362455611 /
22.4774610496979	600	                1.03761594306923	0.533376576927501 
                	660	                1.03590860357252	0.535751163804741 
                	750	                1.03342069714303	0.539270388794326 /
/

SOLUTION ===============================================================
-------- THE SOLUTION SECTION DEFINES THE INITIAL STATE OF THE SOLUTION
-------- VARIABLES (PHASE PRESSURES, SATURATIONS AND GAS-OIL RATIOS)
------------------------------------------------------------------------
/

SUMMARY  ===============================================================
-------- THIS SECTION SPECIFIES DATA TO BE WRITTEN TO THE SUMMARY FILES
-------- AND WHICH MAY LATER BE USED WITH THE ECLIPSE GRAPHICS PACKAGE
------------------------------------------------------------------------
/

SCHEDULE ===============================================================
-------- THE SCHEDULE SECTION DEFINES THE OPERATIONS TO BE SIMULATED
------------------------------------------------------------------------
-- CONTROLS ON OUTPUT AT EACH REPORT TIME
/

END     ================================================================